scripts/data/pwf/reduction/EMS.pwf
(ARQUIVO GRAVADO A PARTIR DO PROGRAMA ORGANON)
TITU
PONTA - ONS - 3Q2021 - DEZEMBRO - Pesada RSUL                                                                           
DOPC
(Op) E (Op) E (Op) E (Op) E (Op) E (Op) E (Op) E (Op) E (Op) E (Op) E
NEWT L STEP L CREM L CELO L 
RCVG L RMON L MOST L MOSG L MOSF L FILE L CONT L
QLIM L
CTAP D
TAPD D
CSCA D
CPHS D
99999
(Mn) ( Val) (Mn) ( Val) (Mn) ( Val) (Mn) ( Val) (Mn) ( Val) (Mn) ( Val)
DCTE
BASE 100.  
TEPA .1    
TEPR .1    
VFLD 80.   
ACIT     35
99999
DBAR
(Num)OETGb(   nome   )Gl( V)( A)( Pg)( Qg)( Qn)( Qm)(Bc  )( Pl)( Ql)( Sh)Are(Vf)M(1)(2)(3)(4)(5)(6)(7)(8)(9)(10
   61 L  CFZ-500-PR500 3 928.236                          -47301867.     1011000
   84 L  GRESEN2-RJ138 51017-1.4                          33.636.818     2551000
   87 L  CRESEND-RJ500 31064.376                          -314.-835.     2511000
   99 L  CAS-AR1-SP500 310591.91                                         2021000
  100 L  CMARIMB-MG500 3105621.8                          -1048201.5     3511000
  101 L  CARARAQ-SP500 3105810.6                          -3729-2321     2021000
  114 L  CBA-IT1-PR500 31071-22.                                         1011000
  115 L  CBA-IT1CAP500 31074-35.                                         2021000
  169 L  GSJOSE2-RJ138 5 999-1.5                          480.5338.2     2541000
  170 L  GP.CALD-MG138 51043-3.2                          208.7-228.     3591000
  190 L  GP.COL--MG138 5102930.3                          -113.-1.49     2081000
  210 L  CITUMBI-MG500 3106231.5                          -1779-34.2     3511000
  221 L  LB.GERA-DF034 5100125.1                          75.618.127     564 991
  226 L  FBANDEI-GO230 5102228.6                          665.6134.2     5131000
  236 L  GB.SUL--DF138 5102128.                                          5641000
  238 L  GR.VERD-GO138 5102934.2                                         5171000
  239 L  GS.MESA-GO138 5104036.4                          -38.7-32.1     5181000
  284 L  GF.CANE-RJ138 51013-5.6                                         2541000
  322 L1 GFRUTA-BIO138 5104232.651.8 0.   0.   0.                        2081000
  327 L  GSOBRAG-MG138 51005-6.5                                         3551000
  332 L  GJ.FORAPCH138 51000-7.9                          354. 19.1      3551000
  360 L  CNPONTE-MG500 3106623.1                          -470.-809.     3511000
  364 L  GP.CAL1-MG138 51043-3.3                          54.12.7408     3591000
  365 L  GP.CAL2-MG138 51042-3.3                          53.03-27.1     3591000
  370 L  CSSIMAO-MG500 3105329.                           -1087330.8     3511000
  376 L  GTAQUAR-MG138 510051.05                          418.9-15.4     3541000
  406 L1 VNPIRA2UTE002 5 951-11.188. -115.-128.234.                      2121000
  414 L  DOESTE--SP440 4 987-14.                          2130.18.49     2031000
  423 L  FROSANA-SP230 5102118.5                                         2051000
  424 L  GROSA7D-SP138 5101722.4                                         2101000
  430 L  GROSA8D-SP138 5101722.3                                         2101000
  478 L  DBAGUAC-SP440 4101412.8                                         2031000
  479 L  GBAGUAC-SP138 5102413.                                          2091000
  485 L  HPIRATI-SP088 51012-17.                          362.5-145.     2121000
  500 L1 VA.VERMUHE005 5102027.8977. 9.181-450.450.                      2031000
  501 L2 VI.SOLTUHE014 5101226.41916.-65.4-700.700.                      2031000
  502 L1 VJUPIA-UHE009 5 97926.4930. -160.-432.432.                      2031000
  503 L1 VJUPI--UHE002 5 95228.1155. -85.7-96. 96.                       2091000
  505 L1 VROSAN2UHE002 5103112.4124. 61.98-72. 72.                       2101000
  506 L1 VJURUMIUHE002 5 993-6.770.  34.92-37.637.2                      2051000
  507 L1 VCAPIVAUHE003 5 99719.3433. -5.82-231.231.                      2031000
  509 L1 VCANOA2UHE003 5 9752.8250.  -8.18-24. 30.                       2101030
  510 L1 VPPRIMAUHE010 5100025.81078.-126.-450.450.                      2031000
  511 L1 VROSAN1UHE002 5103112.4124. 62.18-72. 72.                       2101000
  512 L1 VS.GRD-UHE003 5 988-2.951.  -8.51-27. 27.                       2101000
  513 L1 VTAQUARUHE004 5100920.6368. -18.8-192.192.                      2031000
  519 L1 VPROMISUHE003 5 95016.1185. -13.7-141.141.                      2091000
  520 L1 V3IRMAOUHE004 5 98327.2565. -134.-200.200.                      2031000
  527 L  DSALTO--SP440 4 990-11.                          234.636.64     2031000
  530 L  DM.ROND-MS440 4100220.4                                         2031000
  531 L  TI.SOLTSIN000 5101921.4                                         2031000
  534 L  GROS-2--SP138 510218.04                                         2101000
  535 L  CAVERME-SP500 3107824.4                                         2021000
  536 L  DAVERME-SP440 4102223.4                                         2031000
  537 L  GAVERME-SP138 5102318.6                                         2091000
  538 L  DISOLTE-SP440 4101921.4                                         2031000
  539 L  DJUPIA--SP440 4100220.6                                         2031000
  540 L  DGETULI-SP440 410107.31                                         2031000
  541 L  GJUPIA--SP138 5102523.5                                         2091000
  542 L  D3IRMAO-SP440 4101021.8                                         2031000
  543 L  G3IRMAO-SP138 5102520.9                                         2091000
  544 L  DPPRIMA-SP440 4102119.1                                         2031000
  545 L  FNPPRIM-MS230 5101517.6                                         4021000
  546 L  GROSANA-SP138 510208.04                                         2101000
  547 L  DTAQUAR-SP440 4101915.                                          2031000
  548 L  GTAQUAR-SP138 5102012.7                                         2101000
  549 L  DCAPIVA-SP440 4100612.3                                         2031000
  550 L  GCAPIVA-SP138 5101811.                           30.88-4.18     2101000
  551 L  FASSIS2-SP230 51011-1.7                          104.7-122.     2051000
  552 L  DASSIS--SP440 4 9904.03                                         2031000
  556 L  BASSIS--SP525 210081.9                                          2021000
  557 L  HCANOA2-SP088 51026-.88                          13.385.395     2101000
  559 L  DARARAQ-SP440 410026.14                                         2031000
  560 L  GARARAQ-SP138 510242.68                          391. 93.88     2081000
  561 L  DBAURU--SP440 410072.28                                         2031000
  562 L  GBAURU--SP138 51025.474                          288.2160.1     2091000
  563 L  DRIBPRE-SP440 410198.11                                         2031000
  564 L  GRIBPRE-SP138 510245.                            293.625.46     2081000
  565 L  DMMIRI3-SP440 4 997-6.2                          374.19.817     2031000
  567 L  DSBARBA-SP440 41008-5.3                          0.   80.8      2031000
  568 L  GSBARBA-SP138 51025-9.4                          484.946.55     2071000
  570 L  DSUMARE-SP440 41007-6.8                          341.8-86.5     2031000
  572 L  DMIRASS-SP440 4101511.8                                         2031000
  573 L  DPIRACI-SP440 41009-4.                                          2031000
  577 L  GPIRACI-SP138 51024-6.4                          222.7-11.1     2071000
  578 L  GJPTR1Y-SP138 5102523.5                                         2091000
  579 L  GJPTR2Y-SP138 5102523.5                                         2091000
  580 L  CAS-MA1-SP500 310591.95                                         2021000
  584 L  DCABREU-SP440 4 989-12.                          2572.246.1     2031000
  589 L  DARARAS-SP440 4 987-3.7                          558.636.88     2031000
  591 L  GCABREU-SP138 51026-15.                          144.310.23     2071000
  596 L  GMIRAS2-SP138 510248.56                                         2091000
  597 L 05BAURU-CER013 611002.28                                         2031000
  605 L  GMO-GUA-SP138 5101214.2                          21.82-3.53     2091000
  613 L  HSALTGR-SP088 51041-5.4                          38.93-79.7     2101000
  618 L  FJURUMI-SP230 5 999-12.                          96.6730.52     2051000
  639 L  GDRACE1-SP138 5102012.3                          -25.24.5       2101000
  640 L  GFLORID-SP138 5102113.7                          54.48-11.5     2101000
  642 L  IFLORID-SP069 5 9869.87                          25.2510.82     2101000
  643 L  GMIRANT-SP138 5102010.7                                         2101000
  647 L  GISOLTE-SP138 5101720.5                                         2091000
  652 L  GNAVANH-SP138 5101913.8                          -204.44.39     2091000
  657 L  GPPRI-A-SP138 510218.03                                         2101000
  658 L  GPPRI-B-SP138 510197.81                                         2101040
  661 L  GPROMIS-SP138 5100512.                           54.1 3.475     2091000
  668 L  DALTAPT-SP440 4101316.1                                         2031000
  670 L  GALTAPT-SP138 5102213.9                          22.36-35.6     2091000
  687 L  GEUCUNH-SP138 51015-3.9                          24.4 -12.5     2071000
  747 L  GREGIST-SP138 5 997-30.                          107.249.53     2061000
  755 L  GC.DOUR-GO138 5103136.6                          -165.5.382     5171000
  757 L  GSTAMAR-GO138 5100625.3                                         5641000
  775 L  GDAIA---GO138 5 98022.8                          87.6249.14     5151000
  787 L  FNIQUEL-GO230 5 99130.7                          199.462.84     5131000
  789 L  FCODEMI-GO230 5 97729.2                          46.  16.65     5191000
  798 L  GPACAEM-GO138 5100024.3                          99.93-5.67     5641000
  838 L  GACHATE-PR138 5 908-18.                          31.2 12.6      1031000
  839 L  FCASCAV-PR230 5 986-15.                                         1021000
  840 L  GCASCAV-PR138 5 960-17.                                         1031000
  843 L  FFIGUAN-PR230 5 980-19.                          97.39-23.6     1021000
  847 L  GGUAIRA-PR138 5 950-12.                          20.7 7.8       1031000
  849 L1 GMCROND-PR138 5 917-17.3.7  0.   0.   0.         33.4 14.1      1031000
  851 L  GPALOTI-PR138 5 907-17.                          27.  11.9      1031000
  857 L1 GTOLEDO-PR138 5 928-18.14.  0.   0.   0.         45.3 17.4      1031000
  862 L  GCGAUCH-PR138 5 918-17.                                         1031000
  863 L  GGOIOER-PR138 5 924-17.                                         1031000
  872 L  FSARAND-PR230 5 968-9.4                          398.3-92.1     1021000
  873 L  BGUAIRA-PR525 2 943-4.7                                         1011000
  874 L  GUMUARA-PR138 5 923-15.                          40.3 17.7      1031000
  881 L  GBVPARA-PR138 5 932-14.                          24.  9.4       1031000
  885 L  GFLORPO-PR138 5 922-14.                          15.3 6.9       1031000
  890 L  GLONDRI-PR138 5 963-11.                                         1031000
  895 L  BBATEIA-PR525 21019-22.                          1553.-1043     101 973
  896 L  BCASCOE-PR525 2 964-12.                                         1011000
  897 L  BSCAXIA-PR525 21002-14.                          -382.-827.     1011020
  898 L  FFCHOPI-PR230 51003-20.                          66.2715.64     1021000
  951 L  FCHARQU-RS230 51003-56.                          135.2-8.3        21000
  958 L  GCNOVOE-SC138 51022-42.                          194.9-205.      531000
  978 L  FGUAIRA-PR230 5 936-6.9                                         1021000
  997 L  BPAMPAS-RS525 21021-48.                          -142.35.94       11000
  999 L  BIVAIPE-PR525 2 991-13.                          997.6-1229     1011000
 1018 L  FCORUM2-MS230 51043-3.4                                         4021000
 1019 L  GCORUM2-MS138 51019-4.4                                         4031000
 1025 L  FCGRAN2-MS230 510284.39                                         4021000
 1026 L  GCGRAN2-MS138 510162.45                                         4031000
 1027 L  BLONDRI-PR525 2 990-7.1                          186.8-44.5     1011000
 1047 L  FSOSORI-PR230 51006-20.                          -2.36-245.     1021000
 1075 L  GSIDRO2-MS138 51032-.21                          6.   2.6       4031000
 1076 L  DISOLT2-MS440 4101921.4                                         4011000
 1077 L  FISOLT2-MS230 5100422.                                          4021000
 1078 L  FANASTA-MS230 51044-1.5                                         4021000
 1079 L  GANAS-A-MS138 51034-3.3                                         4031000
 1080 L  GANAS-B-MS138 51034-3.3                                         4031028
 1081 L  GJATA-G-GO138 5 96829.4                                         5201000
 1082 L  GCGRAND-MS138 510132.16                                         4031000
 1084 L  FJATAI--GO230 5 99429.5                                         5131000
 1085 L  FSIDROL-MS230 510381.13                                         4021000
 1086 L  FDOURAD-MS230 510191.12                                         4021000
 1087 L  FRBRILH-MS230 510318.64                                         4021000
 1088 L  FIVINH2-MS230 5100914.2                                         4021000
 1089 L  FCHAPAD-MS230 5100125.2                                         4021000
 1090 L  FINOCEN-MS230 5100623.2                                         4021000
 1091 L  GELDO-F-MS138 5 938-13.                                         4031000
 1092 L  LIVINHE-MS0341110309.99                          4.8  1.        4031000
 1093 L  GIVINHE-MS138 5101111.7                                         4031000
 1094 L  GIVINH2-MS138 5102312.9                                         4031000
 1095 L  GRBRI-G-MS138 5 9938.32                                         4041000
 1098 L  GTRAVRP-MS138 510228.02                                         4031000
 1099 L  GCHAP-G-MS138 5100927.7                                         4041000
 1119 L  FAMANDI-MS230 5100914.1                                         4041000
 1121 L  GDOUIND-MS138 51014-1.5                          7.   3.        4031000
 1122 L  NDOUIND-MS013 5 980-6.9                          23.1 8.5       4031000
 1123 L  NPASTEMBIO013 51035-1.                                          4051000
 1124 L  GPASTEM-MS138 51035-.84                                         4031000
 1125 L1 VMIMOS1UHE001 5101213.29.   0.   0.   0.                        4031000
 1126 L1 VMIMOS2UHE001 5 96214. 15.  0.   0.   0.                        4031000
 1127 L  GJARDIM-MS138 5 995-12.                                         4031000
 1128 L  GDOUALV-MS138 51011-1.5                                         4031000
 1129 L  GCGLAGE-MS138 510111.42                                         4031000
 1130 L  GCGALMO-MS138 51001.771                                         4031000
 1131 L  GAQUIDA-MS138 51031-3.7                                         4031000
 1132 L  GCGSCAF-MS138 510071.42                                         4031000
 1133 L  GCGCENT-MS138 510081.11                                         4031000
 1134 L  GCGMCOU-MS138 510091.73                                         4031000
 1135 L  GACLARA-MS138 5100215.8                          15.6 6.6       4031000
 1136 L  GCGCUIA-MS138 510101.5                                          4031000
 1137 L  GCORUMB-MS138 51017-4.5                          2.6  1.1       4031000
 1138 L  GSIDROL-MS138 51032-.61                                         4031000
 1139 L  GDOUMAX-MS138 51012-1.7                                         4031000
 1140 L  GDOUNAC-MS138 51016-1.5                          13.9 5.9       4031000
 1141 L  GELDORA-MS138 5 906-16.                                         4031000
 1142 L  GDOUSCR-MS138 51016-.59                                         4031000
 1143 L  GFAZITA-MS138 51006-2.9                          2.6  -1.7      4031000
 1144 L  GMIMOSO-MS138 510158.53                                         4031000
 1145 L  GMARACA-MS138 51011-5.1                          8.   3.4       4031000
 1146 L  GMIRAND-MS138 51025-5.2                                         4031000
 1147 L  GNANDRA-MS138 5100511.5                                         4031000
 1148 L  GSGABRI-MS138 51008-5.4                                         4031000
 1149 L  GAGUCGR-MS138 510112.05                          6.4  2.7       4031000
 1163 L  FLAJGDE-RS230 51024-49.                          148.1-60.1       21000
 1203 L1 ICHARQU-RS069 51001-59.1.8  0.   0.   0.                          31000
...
99999
DLIN
(De )d O d(Pa )NcEP ( R% )( X% )(Mvar)(Tap)(Tmn)(Tmx)(Phs)(Bc  )(Cn)(Ce)Ns(Cq)(1)(2)(3)(4)(5)(6)(7)(8)(9)(10
   61     43421 1   .1178 1.9883257.72                          30963622  3622
   61     43422 2   .1178 1.9883257.72                          30963622  3622
   61      4200 0         281.08                                              
   61       584 0         31.08                                               
   61       284 0         315.5                                               
   61      3010 0         65.943                                              
   61      4325 0         181.66                                              
   61       101 0         110.73                                              
   61      6609 0         56.261                                              
   61       169 0         275.64                                              
   61       895 0         66.819                                              
   61       999 0         .87213                                              
   84      1780 1   .7    1.78  .454                             120 120   120
   84      1780 2   .7    1.78  .454                             120 120   120
   84     42417 1   .004  -1.667      1.                         300 359   419
   87     42417 1   .121  4.833       1.04 .9   1.1          -84 300 35921 419
   87        61 0         32.786                                              
   87      4200 0         7.6058                                              
   87       332 0         127.56                                              
   87      1736 0         27.856                                              
   87       584 0         16.525                                              
   87       284 0         8.6326                                              
   87      1751 0         440.02                                              
   87      3010 0         4.052                                               
   87      4325 0         5.4261                                              
   87       101 0         11.726                                              
   87      6609 0         12.755                                              
   87       169 0         7.4742                                              
   87       895 0         82.424                                              
   87       999 0         13.127                                              
   87       360 0         10000.                                              
   99       101 1   .198  3.098 317.55                          20012001  2001
   99       556 1   .00707.00707      1.05                                    
  100       535 1 T .153  2.356 203.8                           17321732  1732
  100      3110 1   .1253 1.8381160.42                          19922390  2390
  100      4598 1   .006  .097  7.4                             18552337  2337
  100      4598 2   .006  .086  7.2                             18552337  2337
  100      4598 3   .0064 .0824 7.1767                          19922390  2390
  100      3112 0         13.485                                              
  100       210 0         49.907                                              
  100       226 0         316.43                                              
  100       360 0         186.19                                              
  100      3010 0         31.693                                              
  100       370 0         10000.                                              
  100       170 0         10000.                                              
  100       236 0         10000.                                              
  100      1530 0         10000.                                              
  101      6609 0         1.3702                                              
  101       169 0         67.402                                              
  101       895 0         496.02                                              
  101       999 0         40.304                                              
  114       895 1   .00707.00707      1.05                                    
  114       115 1         -2.124                                              
  115      6609 1   .263  4.25  659.                            29093667  3667
  169      4200 1D        .01                                    717 717   950
  169      4202 1   .12   1.51  2.13                             956 956   956
  169       999 0         110.69                                              
  170       414 0         44.306                                              
  170     13109 0         59.639                                              
  170        87 0         56.825                                              
  170        61 0         187.26                                              
  170      9073 0         135.74                                              
  170       332 0         112.92                                              
  170      1736 0         473.79                                              
  170       376 0         197.36                                              
  170      1530 0         295.67                                              
  170       360 0         69.537                                              
  170       584 0         26.56                                               
  170      2277 0         287.97                                              
  170      3010 0         7.3309                                              
  170       687 0         25.22                                               
  170       568 0         316.09                                              
  170      4325 0         384.4                                               
  170       101 0         24.744                                              
  170      6609 0         18.669                                              
  170       895 0         57.312                                              
  170       999 0         61.556                                              
  170       747 0         10000.                                              
  170      4326 0         10000.                                              
  170       284 0         10000.                                              
  170       210 0         10000.                                              
  170       190 0         10000.                                              
  170      4200 0         10000.                                              
  170       169 0         10000.                                              
  190      2277 0         413.38                                              
  190      3010 0         69.791                                              
  190       560 0         163.38                                              
  190       564 0         10000.                                              
  210       100 1   .21   2.93  254.6                           17321732  1732
  210       360 1   .1644 2.4974181.15                          25332533  2533
  210       370 1   .15   2.32  196.6                           17321732  1732
  210      4531 1   .191  2.807 243.9                           24592459  2459
  210      7113 0         7.5612                                              
  210       226 0         5.0787                                              
  210      4495 0         186.59                                              
  210       238 0         13.69                                               
  210       376 0         315.08                                              
  210      1530 0         114.57                                              
  210       360 0         3.0239                                              
  210      6400 0         169.8                                               
  210      3010 0         47.915                                              
  210      4623 0         87.206                                              
  210      5570 0         78.812                                              
  210       755 0         18.138                                              
  221      3724 0         140.16                                              
  221       787 0         136.37                                              
  221       210 0         149.96                                              
  221      7113 0         41.153                                              
  221       226 0         93.407                                              
  221       360 0         222.18                                              
  221       238 0         10000.                                              
  221      5926 0         10000.                                              
  221      1530 0         10000.                                              
  221      6400 0         10000.                                              
  221       755 0         10000.                                              
  221      6071 0         10000.                                              
  221      5570 0         10000.                                              
  226      3023 1   .008  .04                                    251 251   251
  226       238 0         52.642                                              
  226       360 0         71.096                                              
  226      6400 0         327.12                                              
  226      5570 0         212.44                                              
  226       755 0         19.749                                              
  226      5926 0         10000.                                              
  226      1530 0         10000.                                              
  226       376 0         10000.                                              
  226      9073 0         10000.                                              
  226      5350 0         10000.                                              
  226      3010 0         10000.                                              
  226      6071 0         10000.                                              
  226      4623 0         10000.                                              
  236       221 0         23.683                                              
  236      3724 0         77.324                                              
  236       787 0         32.731                                              
  236      5926 0         454.76                                              
  236      9073 0         496.75                                              
  236       210 0         10.75                                               
  236      7113 0         5.0121                                              
  236       226 0         12.798                                              
  236       238 0         470.62                                              
  236      1530 0         169.61                                              
  236       360 0         19.672                                              
  236      6400 0         80.344                                              
  236      6071 0         181.73                                              
  236      5570 0         45.185                                              
  236      4326 0         10000.                                              
  236       376 0         10000.                                              
  236      5350 0         10000.                                              
  236      3010 0         10000.                                              
  236       755 0         10000.                                              
  238      4623 0         37.688                                              
  238       755 0         16.514                                              
  239       236 0         129.62                                              
  239       787 0         22.891                                              
  239       210 0         391.32                                              
  239      7113 0         18.977                                              
  239       226 0         493.59                                              
  239       360 0         337.47                                              
  239      6400 0         336.48                                              
  239       221 0         10000.                                              
  239      3724 0         10000.                                              
  239      1530 0         10000.                                              
  239      5570 0         10000.                                              
  284      1689 1   .35   .5    14.904                            99 125    99
  284      1751 0         389.41                                              
  284      3010 0         32.148                                              
  284      4325 0         10.246                                              
  284       101 0         89.961                                              
  284      6609 0         70.926                                              
  284       169 0         12.986                                              
  284       999 0         126.67                                              
  322      7432 1   2.92  6.92  1.7                              125 125   125
  327       332 1   3.75  9.82  2.334                             95  95    95
  332      1736 0         124.81                                              
  332       376 0         43.163                                              
  332      1530 0         92.926                                              
  332       360 0         71.367                                              
  332       284 0         213.61                                              
  332      3010 0         37.638                                              
  332      4325 0         211.38                                              
  332       169 0         188.82                                              
  332       584 0         10000.                                              
  332       101 0         10000.                                              
  332      6609 0         10000.                                              
  360      3010 1   .134  2.023 158.38                          25332533  2533
  360      2277 0         445.33                                              
  360      6400 0         159.26                                              
  360      3010 0         2.299                                               
  360      6071 0         135.55                                              
  360      5570 0         57.131                                              
  360       755 0         113.67                                              
  360      4200 0         10000.                                              
  360      4325 0         10000.                                              
  360      5350 0         10000.                                              
  360       101 0         10000.                                              
  360      6609 0         10000.                                              
  364       170 1   .02   .24   .11                              344 344   344
  364       365 1D  .00707.00707                                              
  365       170 1   .03   .15   .14                              480 480   480
  370       535 1   .09   1.38  112.3                           22062598  2598
...
99999
DCSC
(De ) O  (Pa )NcEP       (Xmin)(Xmax)( Xv )C ( Vsp) (Ext)Nst(1)(2)(3)(4)(5)(6)
99999
DCAI
(Num) O  Gr E (U) UOp ( P ) ( Q ) (A) (B) (C) (D) (Vfl) (Vf)
  236     1 L   1   1 .81                         80.   1000
  236     9 L   1   1 676.4 -35.3                 80.   1000
  238     1 L   1   1 .13                         80.   1000
  238     9 L   1   1 29.51 16.33                 80.   1000
  284     1 L   1   1 102.9 2.3                   80.   1000
  284     9 L   1   1 329.  .034                  80.   1000
  322     1 L   1   1 30.4  4.6                   80.   1000
  322     9 L   1   1 -19.3 -1.69                 80.   1000
  327     1 L   1   1 8.7   2.8                   80.   1000
  327     9 L   1   1 -33.  2.12                  80.   1000
  840     1 L   1   1 37.9  17.1                  80.   1000
  840     9 L   1   1 105.8 28.27                 80.   1000
  862     1 L   1   1 19.2  8.5                   80.   1000
  862     9 L   1   1 31.34 4.563                 80.   1000
  863     1 L   1   1 20.2  9.2                   80.   1000
  863     9 L   1   1 23.06 3.373                 80.   1000
  890     1 L   1   1 26.5  11.1                  80.   1000
  890     9 L   1   1 324.3 163.3                 80.   1000
 1203     1 L   1   1 25.1  11.7                  80.   1000
 1203     9 L   1   1 35.51 13.35                 80.   1000
 1229     1 L   1   1 11.7  4.6                   80.   1000
 1229     9 L   1   1 -2.17 1.266                 80.   1000
 1241     1 L   1   1 31.7  4.9                   80.   1000
 1241     9 L   1   1 30.28 5.064                 80.   1000
 1290     1 L   1   1 19.   5.5                   80.   1000
 1290     9 L   1   1 22.4  -7.22                 80.   1000
 1301     1 L   1   1 13.2  5.5                   80.   1000
 1301     9 L   1   1 40.43 6.622                 80.   1000
 1535     1 L   1   1 29.1  9.2                   80.   1000
 1535     9 L   1   1 49.58 -9.58                 80.   1000
 1557     1 L   1   1 53.8  6.3                   80.   1000
 1557     9 L   1   1 -15.7 -15.7                 80.   1000
 1561     1 L   1   1 17.9  .3                    80.   1000
 1561     9 L   1   1 -36.7 10.18                 80.   1000
 1565     1 L   1   1 41.   -6.1                  80.   1020
 1565     9 L   1   1 52.46 28.75                 80.   1020
 1661     1 L   1   1 28.5  .2                    80.   1000
 1661     9 L   1   1 144.4 43.71                 80.   1000
 1693     1 L   1   1 63.5  19.5                  80.   1000
 1693     9 L   1   1                             80.   1000
 1736     1 L   1   1 49.5  18.5                  80.   1000
 1736     9 L   1   1 -145. -58.8                 80.   1000
 1750     1 L   1   1 7.2   4.2                   80.   1000
 1750     9 L   1   1 -16.2 -5.84                 80.   1000
 1780     1 L   1   1 27.3  9.4                   80.   1000
 1780     9 L   1   1 29.26 1.184                 80.   1000
 2090     1 L   1   1 36.5  3.1                   80.   1000
 2090     9 L   1   1 293.5 -57.8                 80.   1000
 2094     1 L   1   1 29.5  3.6                   80.   1000
 2094     9 L   1   1 72.14 -25.8                 80.   1000
 2130     1 L   1   1 13.8  7.5                   80.   1000
 2130     9 L   1   1 40.55 29.49                 80.   1000
 2164     1 L   1   1 4.8   3.1                   80.   1000
 2164     9 L   1   1 36.32 13.14                 80.   1000
 2170     1 L   1   1 19.1  7.7                   80.   1000
 2170     9 L   1   1 45.12 20.82                 80.   1000
 2172     1 L   1   1 19.   9.                    80.   1000
 2172     9 L   1   1 95.65 -33.6                 80.   1000
 2209     1 L   1   1 10.   4.5                   80.   1000
 2209     9 L   1   1 6.005 -.48                  80.   1000
 2217     1 L   1   1 26.8  9.5                   80.   1000
 2217     9 L   1   1 11.   5.392                 80.   1000
 2219     1 L   1   1 22.5  9.6                   80.   1000
 2219     9 L   1   1 348.7 -17.2                 80.   1000
 2231     1 L   1   1 28.8  12.                   80.   1000
 2231     9 L   1   1 35.72 14.23                 80.   1000
 2242     1 L   1   1 4.8   1.5                   80.   1000
 2242     9 L   1   1 21.81 9.487                 80.   1000
 2249     1 L   1   1 30.1  7.1                   80.   1000
 2249     9 L   1   1 66.75 24.24                 80.   1000
 2250     1 L   1   1 41.   10.7                  80.   1000
 2250     9 L   1   1 16.84 3.498                 80.   1000
 2251     1 L   1   1 17.1  5.                    80.   1000
 2251     9 L   1   1 2.318 40.27                 80.   1000
 2269     1 L   1   1 25.8  13.9                  80.   1000
 2269     9 L   1   1 45.13 14.41                 80.   1000
 2277     1 L   1   1 11.7  3.4                   80.   1000
 2277     9 L   1   1 137.5 145.3                 80.   1000
 2284     1 L   1   1 28.   10.7                  80.   1000
 2284     9 L   1   1 27.81 -2.57                 80.   1000
 2344     1 L   1   1 13.5  4.3                   80.   1000
 2344     9 L   1   1 16.12 13.17                 80.   1000
 2399     1 L   1   1 1.    .8                    80.   1000
 2399     9 L   1   1 0.    0.                    80.   1000
 2445     1 L   1   1 25.7  11.3                  80.   1000
 2445     9 L   1   1 24.73 1.667                 80.   1000
 2623     1 L   1   1 52.8  9.7                   80.   1000
 2623     9 L   1   1 -13.4 -.813                 80.   1000
 2631     1 L   1   1 19.7  -5.                   80.   1000
 2631     9 L   1   1 -45.4 15.33                 80.   1000
 2653     1 L   1   1 62.1  10.                   80.   1000
 2653     9 L   1   1 95.4  -78.3                 80.   1000
 2684     1 L   1   1 122.1 37.                   80.   1000
 2684     9 L   1   1                             80.   1000
 2720     1 L   1   1 12.   5.7                   80.   1000
 2720     9 L   1   1 30.21 10.89                 80.   1000
 2722     1 L   1   1 33.6  16.7                  80.   1000
 2722     9 L   1   1 57.4  -22.8                 80.   1000
 2755     1 L   1   1 11.8  4.9                   80.   1000
 2755     9 L   1   1 17.78 .0252                 80.   1000
 2773     1 L   1   1 31.5  9.4                   80.   1000
 2773     9 L   1   1 64.68 17.14                 80.   1000
 2799     1 L   1   1 26.4  11.5                  80.   1000
 2799     9 L   1   1 181.2 -3.28                 80.   1000
 2827     1 L   1   1 20.8  9.1                   80.   1000
 2827     9 L   1   1 14.57 5.693                 80.   1000
 2832     1 L   1   1 44.1  20.1                  80.   1000
 2832     9 L   1   1 199.4 -105.                 80.   1000
 2870     1 L   1   1 54.3  24.4                  80.   1000
 2870     9 L   1   1 257.5 -94.7                 80.   1000
 2882     1 L   1   1 6.7   3.                    80.   1000
 2882     9 L   1   1 8.001 1.975                 80.   1000
 2889     1 L   1   1 43.4  16.                   80.   1000
 2889     9 L   1   1 102.7 -59.5                 80.   1000
 3010     9 L   1   1 -1956 896.5                 80.   1000
 3010     9 L   1   1 -161. -1667                 80.   1000
 3175     1 L   1   1 1.8   .8                    80.   1000
 3175     9 L   1   1                             80.   1000
 3312     1 L   1   1 8.7   -4.6                  80.   1000
 3312     9 L   1   1 4.809 .3463                 80.   1000
 3338     1 L   1   1 2.1   1.8                   80.   1000
 3338     9 L   1   1 19.6  -28.4                 80.   1000
 3341     1 L   1   1 .1    .1                    80.   1000
 3341     9 L   1   1 7.623 .6054                 80.   1000
 3592     1 L   1   1 11.3  4.7                   80.   1000
 3592     9 L   1   1 3.206 1.53                  80.   1000
 3915     1 L   1   1 5.    -.4                   80.   1000
 3915     9 L   1   1 4.024 -.078                 80.   1000
 3950     1 L   1   1 1.5   .2                    80.   1000
 3950     9 L   1   1                             80.   1000
 4240     1 L   1   1 28.9  10.1                  80.   1000
 4240     9 L   1   1 35.16 10.49                 80.   1000
 4273     1 L   1   1 25.5  5.8                   80.   1000
 4273     9 L   1   1 73.13 16.46                 80.   1000
 4274     1 L   1   1 59.9  12.8                  80.   1000
 4274     9 L   1   1 29.04 9.867                 80.   1000
 4328     1 L   1   1 20.6  -2.9                  80.   1000
 4328     9 L   1   1 -7.07 -.09                  80.   1000
 4611     1 L   1   1 13.4  4.9                   80.   1000
 4611     9 L   1   1 -4.68 -4.88                 80.   1000
 4645     1 L   1   1 9.5   5.3                   80.   1000
 4645     9 L   1   1 -2.39 -.032                 80.   1000
 4818     1 L   1   1 16.3  8.2                   80.   1000
 4818     9 L   1   1 -8.46 2.082                 80.   1000
 4880     1 L   1   1 20.6  8.3                   80.   1000
 4880     9 L   1   1 -22.1 2.979                 80.   1000
 6013     1 L   1   1 57.7  8.2                   80.   1000
 6013     9 L   1   1 28.61 23.03                 80.   1000
 6173     1 L   1   1 43.4  5.6                   80.   1000
 6173     9 L   1   1 18.62 53.52                 80.   1000
 7352     1 L   1   1 5.9   2.3                   80.   1000
 7352     9 L   1   1 30.53 -9.21                 80.   1000
 9068     1 L   1   1 38.2  -7.5                  80.   1000
 9068     9 L   1   1 41.25 1.638                 80.   1000
 9073     1 L   1   1 43.6  4.3                   80.   1000
 9073     9 L   1   1 224.  -41.9                 80.   1000
 9088     1 L   1   1 9.6   2.8                   80.   1000
 9088     9 L   1   1 18.33 -1.31                 80.   1000
 9095     1 L   1   1 15.5  2.5                   80.   1000
 9095     9 L   1   1 4.649 13.51                 80.   1000
 9236     1 L   1   1 26.1  5.2                   80.   1000
 9236     9 L   1   1 35.27 5.982                 80.   1000
 9428     1 L   1   1 26.   9.8                   80.   1000
 9428     9 L   1   1 3.508 12.57                 80.   1000
99999
DGEI
(Num) OA Gr E(U)UOpUOn( Pg)( Qg)( Qn)( Qm)(Xtrf) ( Xd)( Xq)( Xl) (fp)( Sn)(Ptu)
99999
DBSH
(NFr) O (NTo) Nc C (Vmn (Vmx Bctrl (Qini) T A (Extr
  169            F 0900 1100   169 250.   L        
(G  O E (U) UOp (Sht )
10        1   1 250.  
20        1   0 250.  
FBAN
(NFr) O (NTo) Nc C (Vmn (Vmx Bctrl (Qini) T A (Extr
  170            F 0950 1050   170        C        
(G  O E (U) UOp (Sht )
10        1   0 150.  
FBAN
(NFr) O (NTo) Nc C (Vmn (Vmx Bctrl (Qini) T A (Extr
  238            F 0950 1050   238        C        
(G  O E (U) UOp (Sht )
10        1   0 -15.  
FBAN
(NFr) O (NTo) Nc C (Vmn (Vmx Bctrl (Qini) T A (Extr
  332            D 0950 1050   332 32.8   C        
(G  O E (U) UOp (Sht )
10        1   1 32.8  
FBAN
(NFr) O (NTo) Nc C (Vmn (Vmx Bctrl (Qini) T A (Extr
  360            D 0900 1100   360 -272.  C        
(G  O E (U) UOp (Sht )
10        2   2 -136. 
FBAN
(NFr) O (NTo) Nc C (Vmn (Vmx Bctrl (Qini) T A (Extr
  485            F 0950 1050   485 28.8   C        
(G  O E (U) UOp (Sht )
10        1   1 28.8  
FBAN
(NFr) O (NTo) Nc C (Vmn (Vmx Bctrl (Qini) T A (Extr
  535            D 0900 1100   535        C        
(G  O E (U) UOp (Sht )
10        1   0 -165. 
FBAN
(NFr) O (NTo) Nc C (Vmn (Vmx Bctrl (Qini) T A (Extr
  540            D 0950 1050   540        C        
(G  O E (U) UOp (Sht )
10        2   0 -180. 
FBAN
(NFr) O (NTo) Nc C (Vmn (Vmx Bctrl (Qini) T A (Extr
  556            F 0950 1048   556 -150.  C        
(G  O E (U) UOp (Sht )
10        2   1 -150. 
FBAN
(NFr) O (NTo) Nc C (Vmn (Vmx Bctrl (Qini) T A (Extr
  559            D 0950 1046   559        C        
(G  O E (U) UOp (Sht )
10        2   0 -183. 
FBAN
(NFr) O (NTo) Nc C (Vmn (Vmx Bctrl (Qini) T A (Extr
  561            D 0950 1046   561        C        
(G  O E (U) UOp (Sht )
10        1   0 -183. 
FBAN
(NFr) O (NTo) Nc C (Vmn (Vmx Bctrl (Qini) T A (Extr
  562            F 1000 1020   562 100.   C        
(G  O E (U) UOp (Sht )
10        1   1 100.  
FBAN
(NFr) O (NTo) Nc C (Vmn (Vmx Bctrl (Qini) T A (Extr
  564            F 0950 1050   564        C        
(G  O E (U) UOp (Sht )
10        1   0 100.  
FBAN
(NFr) O (NTo) Nc C (Vmn (Vmx Bctrl (Qini) T A (Extr
  568            D 1000 1020   568 300.   C        
(G  O E (U) UOp (Sht )
10        3   3 100.  
FBAN
(NFr) O (NTo) Nc C (Vmn (Vmx Bctrl (Qini) T A (Extr
  570            D 0950 1046   570        C        
(G  O E (U) UOp (Sht )
10        1   0 -91.5 
FBAN
(NFr) O (NTo) Nc C (Vmn (Vmx Bctrl (Qini) T A (Extr
  572            D 0950 1046   572        C        
(G  O E (U) UOp (Sht )
10        1   0 -180. 
20        1   0 -180. 
FBAN
(NFr) O (NTo) Nc C (Vmn (Vmx Bctrl (Qini) T A (Extr
  577            F 0950 1050   577 100.   C        
(G  O E (U) UOp (Sht )
10        2   2 50.   
FBAN
(NFr) O (NTo) Nc C (Vmn (Vmx Bctrl (Qini) T A (Extr
  584            D 0950 1046   584        C        
(G  O E (U) UOp (Sht )
10        1   0 -100. 
FBAN
(NFr) O (NTo) Nc C (Vmn (Vmx Bctrl (Qini) T A (Extr
  591            F 1000 1020   591 50.    C        
(G  O E (U) UOp (Sht )
10        1   1 50.   
FBAN
(NFr) O (NTo) Nc C (Vmn (Vmx Bctrl (Qini) T A (Extr
  639            D 0950 1050   639        C        
(G  O E (U) UOp (Sht )
10        1   0 30.   
FBAN
(NFr) O (NTo) Nc C (Vmn (Vmx Bctrl (Qini) T A (Extr
  640            D 0950 1050   640        C        
(G  O E (U) UOp (Sht )
10        1   0 30.   
FBAN
(NFr) O (NTo) Nc C (Vmn (Vmx Bctrl (Qini) T A (Extr
  643            F 0950 1050   643 30.    C        
(G  O E (U) UOp (Sht )
10        2   1 30.   
FBAN
(NFr) O (NTo) Nc C (Vmn (Vmx Bctrl (Qini) T A (Extr
  668            F 0950 1050   668        C        
(G  O E (U) UOp (Sht )
10        1   0 -90.  
FBAN
(NFr) O (NTo) Nc C (Vmn (Vmx Bctrl (Qini) T A (Extr
  747            D 0950 1050   747 70.    C        
(G  O E (U) UOp (Sht )
10        1   1 20.   
20        1   1 50.   
FBAN
(NFr) O (NTo) Nc C (Vmn (Vmx Bctrl (Qini) T A (Extr
  838            F 0950 1050   838        C        
(G  O E (U) UOp (Sht )
10    D   1   0 2.4   
20    D   1   0 4.8   
FBAN
(NFr) O (NTo) Nc C (Vmn (Vmx Bctrl (Qini) T A (Extr
  840            F 0950 1050   840 2.4    C        
(G  O E (U) UOp (Sht )
10        1   1 2.4   
20        2   0 -15.  
FBAN
(NFr) O (NTo) Nc C (Vmn (Vmx Bctrl (Qini) T A (Extr
  847            F 0950 1050   847        C        
(G  O E (U) UOp (Sht )
10    D   1   0 2.4   
20        3   0 -5.   
30        1   0 -10.  
FBAN
(NFr) O (NTo) Nc C (Vmn (Vmx Bctrl (Qini) T A (Extr
  849            F 0950 1050   849 4.8    C        
(G  O E (U) UOp (Sht )
30        3   1 4.8   
FBAN
(NFr) O (NTo) Nc C (Vmn (Vmx Bctrl (Qini) T A (Extr
  851            F 0950 1050   851 4.8    C        
(G  O E (U) UOp (Sht )
10        2   2 2.4   
FBAN
(NFr) O (NTo) Nc C (Vmn (Vmx Bctrl (Qini) T A (Extr
  857            F 0950 1050   857 14.4   C        
(G  O E (U) UOp (Sht )
10        4   4 3.6   
FBAN
(NFr) O (NTo) Nc C (Vmn (Vmx Bctrl (Qini) T A (Extr
  862            F 0950 1050   862 2.4    C        
(G  O E (U) UOp (Sht )
10        1   1 2.4   
FBAN
(NFr) O (NTo) Nc C (Vmn (Vmx Bctrl (Qini) T A (Extr
  863            F 0950 1050   863 4.8    C        
(G  O E (U) UOp (Sht )
10        2   2 2.4   
FBAN
(NFr) O (NTo) Nc C (Vmn (Vmx Bctrl (Qini) T A (Extr
  873            D 0950 1050   873 -150.  C        
(G  O E (U) UOp (Sht )
10        1   1 -150. 
FBAN
(NFr) O (NTo) Nc C (Vmn (Vmx Bctrl (Qini) T A (Extr
  874            F 0950 1050   874 3.6    C        
(G  O E (U) UOp (Sht )
10        3   1 3.6   
FBAN
(NFr) O (NTo) Nc C (Vmn (Vmx Bctrl (Qini) T A (Extr
  881            F 0950 1050   881 2.4    C        
(G  O E (U) UOp (Sht )
10        1   1 2.4   
FBAN
(NFr) O (NTo) Nc C (Vmn (Vmx Bctrl (Qini) T A (Extr
  890            F 0950 1050   890 59.4   C        
(G  O E (U) UOp (Sht )
10        2   2 2.4   
20        2   2 4.8   
30        1   1 30.   
40        1   1 15.   
FBAN
(NFr) O (NTo) Nc C (Vmn (Vmx Bctrl (Qini) T A (Extr
  895            F 0950 1050   895        C        
(G  O E (U) UOp (Sht )
10        1   0 -200. 
FBAN
(NFr) O (NTo) Nc C (Vmn (Vmx Bctrl (Qini) T A (Extr
  978            D 0950 1050   978 80.    C        
(G  O E (U) UOp (Sht )
10        1   1 50.   
20        1   1 30.   
FBAN
(NFr) O (NTo) Nc C (Vmn (Vmx Bctrl (Qini) T A (Extr
 1018            D 0950 1050  1018 -30.   C        
(G  O E (U) UOp (Sht )
10        2   2 -15.  
FBAN
(NFr) O (NTo) Nc C (Vmn (Vmx Bctrl (Qini) T A (Extr
 1027            D 0950 1048  1027 -150.  C        
(G  O E (U) UOp (Sht )
10        2   1 -150. 
FBAN
(NFr) O (NTo) Nc C (Vmn (Vmx Bctrl (Qini) T A (Extr
 1081            F 0950 1050  1081 -10.   C        
(G  O E (U) UOp (Sht )
10        1   1 -10.  
FBAN
(NFr) O (NTo) Nc C (Vmn (Vmx Bctrl (Qini) T A (Extr
 1082            F 0950 1050  1082 30.    C        
(G  O E (U) UOp (Sht )
10        1   1 30.   
FBAN
(NFr) O (NTo) Nc C (Vmn (Vmx Bctrl (Qini) T A (Extr
 1086            D 0950 1050  1086        C        
(G  O E (U) UOp (Sht )
10        1   0 -27.  
20        2   0 50.   
FBAN
(NFr) O (NTo) Nc C (Vmn (Vmx Bctrl (Qini) T A (Extr
 1099            F 0950 1050  1099        C        
(G  O E (U) UOp (Sht )
10        1   0 -5.   
FBAN
(NFr) O (NTo) Nc C (Vmn (Vmx Bctrl (Qini) T A (Extr
 1122            F 0930 1050  1122 7.2    C        
(G  O E (U) UOp (Sht )
10        4   4 1.8   
FBAN
(NFr) O (NTo) Nc C (Vmn (Vmx Bctrl (Qini) T A (Extr
 1131            F 0950 1050  1131 -5.    C        
(G  O E (U) UOp (Sht )
10        1   1 -5.   
FBAN
(NFr) O (NTo) Nc C (Vmn (Vmx Bctrl (Qini) T A (Extr
 1132            F 0950 1050  1132 15.    C        
(G  O E (U) UOp (Sht )
10        1   1 15.   
FBAN
(NFr) O (NTo) Nc C (Vmn (Vmx Bctrl (Qini) T A (Extr
 1136            F 0950 1050  1136 15.    C        
(G  O E (U) UOp (Sht )
10        1   1 15.   
FBAN
(NFr) O (NTo) Nc C (Vmn (Vmx Bctrl (Qini) T A (Extr
 1140            F 0950 1050  1140        C        
(G  O E (U) UOp (Sht )
10        1   0 15.   
FBAN
(NFr) O (NTo) Nc C (Vmn (Vmx Bctrl (Qini) T A (Extr
 1148            F 0950 1050  1148        C        
(G  O E (U) UOp (Sht )
10        1   0 -5.   
FBAN
(NFr) O (NTo) Nc C (Vmn (Vmx Bctrl (Qini) T A (Extr
 1203            F 0930 1050  1203 3.6    C        
(G  O E (U) UOp (Sht )
10        1   1 3.6   
FBAN
(NFr) O (NTo) Nc C (Vmn (Vmx Bctrl (Qini) T A (Extr
 1230            D 0950 1050  1230 -30.   C        
(G  O E (U) UOp (Sht )
10        1   1 -30.  
FBAN
(NFr) O (NTo) Nc C (Vmn (Vmx Bctrl (Qini) T A (Extr
 1239            D 0950 1050  1239        C        
(G  O E (U) UOp (Sht )
10        1   0 -30.  
FBAN
(NFr) O (NTo) Nc C (Vmn (Vmx Bctrl (Qini) T A (Extr
 1241            F 0950 1050  1241 7.2    C        
(G  O E (U) UOp (Sht )
10        2   2 3.6   
FBAN
(NFr) O (NTo) Nc C (Vmn (Vmx Bctrl (Qini) T A (Extr
 1290            F 0950 1050  1290 7.2    C        
(G  O E (U) UOp (Sht )
10        2   2 3.6   
FBAN
(NFr) O (NTo) Nc C (Vmn (Vmx Bctrl (Qini) T A (Extr
 1301            F 0930 1050  1301 9.     C        
(G  O E (U) UOp (Sht )
10        1   1 1.8   
20        2   2 3.6   
FBAN
(NFr) O (NTo) Nc C (Vmn (Vmx Bctrl (Qini) T A (Extr
 1736            F 0950 1050  1736 19.2   L        
(G  O E (U) UOp (Sht )
10        4   4 4.8   
FBAN
(NFr) O (NTo) Nc C (Vmn (Vmx Bctrl (Qini) T A (Extr
 1780            F 0950 1050  1780 4.8    C        
(G  O E (U) UOp (Sht )
10        2   2 2.4   
FBAN
(NFr) O (NTo) Nc C (Vmn (Vmx Bctrl (Qini) T A (Extr
 1800            F 0930 1050  1800 12.6   C        
(G  O E (U) UOp (Sht )
10       15   7 1.8   
FBAN
(NFr) O (NTo) Nc C (Vmn (Vmx Bctrl (Qini) T A (Extr
 1802            F 0930 1050  1802 7.2    C        
(G  O E (U) UOp (Sht )
10        4   4 1.8   
FBAN
(NFr) O (NTo) Nc C (Vmn (Vmx Bctrl (Qini) T A (Extr
 1804            F 0930 1050  1804 5.4    C        
(G  O E (U) UOp (Sht )
10        7   3 1.8   
FBAN
(NFr) O (NTo) Nc C (Vmn (Vmx Bctrl (Qini) T A (Extr
 1808            F 0950 1050  1808 3.6    C        
(G  O E (U) UOp (Sht )
10        2   2 1.8   
FBAN
(NFr) O (NTo) Nc C (Vmn (Vmx Bctrl (Qini) T A (Extr
 1809            F 0950 1050  1809        C        
(G  O E (U) UOp (Sht )
10        4   0 1.8   
FBAN
(NFr) O (NTo) Nc C (Vmn (Vmx Bctrl (Qini) T A (Extr
 1811            F 0950 1050  1811 3.6    C        
(G  O E (U) UOp (Sht )
10        6   2 1.8   
FBAN
(NFr) O (NTo) Nc C (Vmn (Vmx Bctrl (Qini) T A (Extr
 1814            F 0930 1050  1814 14.4   C        
(G  O E (U) UOp (Sht )
10        8   8 1.8   
FBAN
(NFr) O (NTo) Nc C (Vmn (Vmx Bctrl (Qini) T A (Extr
 1815            F 0930 1050  1815 14.4   C        
(G  O E (U) UOp (Sht )
10       12   8 1.8   
FBAN
(NFr) O (NTo) Nc C (Vmn (Vmx Bctrl (Qini) T A (Extr
 1816            F 0930 1050  1816 10.8   C        
(G  O E (U) UOp (Sht )
10        6   6 1.8   
FBAN
(NFr) O (NTo) Nc C (Vmn (Vmx Bctrl (Qini) T A (Extr
 1818            F 0930 1050  1818        C        
(G  O E (U) UOp (Sht )
10        8   0 1.8   
20        6   0 1.8   
30        6   0 1.8   
FBAN
(NFr) O (NTo) Nc C (Vmn (Vmx Bctrl (Qini) T A (Extr
 1820            F 0930 1050  1820 8.4    C        
(G  O E (U) UOp (Sht )
10        3   3 1.8   
20        1   1 3.    
FBAN
(NFr) O (NTo) Nc C (Vmn (Vmx Bctrl (Qini) T A (Extr
 1821            F 0930 1050  1821 5.4    C        
(G  O E (U) UOp (Sht )
10        3   3 1.8   
FBAN
(NFr) O (NTo) Nc C (Vmn (Vmx Bctrl (Qini) T A (Extr
 1826            F 0930 1050  1826 7.2    C        
(G  O E (U) UOp (Sht )
10        4   4 1.8   
FBAN
(NFr) O (NTo) Nc C (Vmn (Vmx Bctrl (Qini) T A (Extr
 1828            F 0950 1050  1828 7.2    C        
(G  O E (U) UOp (Sht )
10        8   4 1.8   
FBAN
(NFr) O (NTo) Nc C (Vmn (Vmx Bctrl (Qini) T A (Extr
 1833            F 0950 1050  1833        C        
(G  O E (U) UOp (Sht )
10        2   0 1.8   
FBAN
(NFr) O (NTo) Nc C (Vmn (Vmx Bctrl (Qini) T A (Extr
 1834            F 0950 1050  1834 3.6    C        
(G  O E (U) UOp (Sht )
10        2   2 1.8   
FBAN
(NFr) O (NTo) Nc C (Vmn (Vmx Bctrl (Qini) T A (Extr
 1837            F 0500 1300  1837        C        
(G  O E (U) UOp (Sht )
10        1   0 -5.   
FBAN
(NFr) O (NTo) Nc C (Vmn (Vmx Bctrl (Qini) T A (Extr
 1842            F 0950 1050  1842 1.8    C        
(G  O E (U) UOp (Sht )
10        3   2 .9    
FBAN
(NFr) O (NTo) Nc C (Vmn (Vmx Bctrl (Qini) T A (Extr
 1843            F 0950 1050  1843        C        
(G  O E (U) UOp (Sht )
10        1   0 -5.   
FBAN
(NFr) O (NTo) Nc C (Vmn (Vmx Bctrl (Qini) T A (Extr
 1845            F 0950 1050  1845 1.8    C        
(G  O E (U) UOp (Sht )
10        3   2 .9    
FBAN
(NFr) O (NTo) Nc C (Vmn (Vmx Bctrl (Qini) T A (Extr
 1848            F 0950 1050  1848 9.     C        
(G  O E (U) UOp (Sht )
10        7   5 1.8   
FBAN
(NFr) O (NTo) Nc C (Vmn (Vmx Bctrl (Qini) T A (Extr
 1850            F 0930 1048  1850        C        
(G  O E (U) UOp (Sht )
10        2   0 1.8   
FBAN
(NFr) O (NTo) Nc C (Vmn (Vmx Bctrl (Qini) T A (Extr
 1851            F 0950 1050  1851 3.6    C        
(G  O E (U) UOp (Sht )
10        2   2 1.8   
FBAN
(NFr) O (NTo) Nc C (Vmn (Vmx Bctrl (Qini) T A (Extr
 1856            F 0950 1050  1856 -5.    C        
(G  O E (U) UOp (Sht )
10        1   1 -5.   
FBAN
(NFr) O (NTo) Nc C (Vmn (Vmx Bctrl (Qini) T A (Extr
 1890            F 0950 1050  1890        C        
(G  O E (U) UOp (Sht )
10        2   0 30.   
FBAN
(NFr) O (NTo) Nc C (Vmn (Vmx Bctrl (Qini) T A (Extr
 2090            F 0950 1050  2090 7.2    C        
(G  O E (U) UOp (Sht )
10        2   2 3.6   
FBAN
(NFr) O (NTo) Nc C (Vmn (Vmx Bctrl (Qini) T A (Extr
 2094            F 0950 1050  2094 3.6    C        
(G  O E (U) UOp (Sht )
10        1   1 3.6   
FBAN
(NFr) O (NTo) Nc C (Vmn (Vmx Bctrl (Qini) T A (Extr
 2130            D 0950 1050  2130 15.    C        
(G  O E (U) UOp (Sht )
10        1   1 15.   
FBAN
(NFr) O (NTo) Nc C (Vmn (Vmx Bctrl (Qini) T A (Extr
 2131            F 0950 1050  2131 20.    C        
(G  O E (U) UOp (Sht )
10        1   1 20.   
FBAN
(NFr) O (NTo) Nc C (Vmn (Vmx Bctrl (Qini) T A (Extr
 2179            D 0950 1050  2179 20.    C        
(G  O E (U) UOp (Sht )
10        1   1 20.   
FBAN
(NFr) O (NTo) Nc C (Vmn (Vmx Bctrl (Qini) T A (Extr
 2219            D 0950 1050  2219 30.    C        
(G  O E (U) UOp (Sht )
10        1   1 30.   
FBAN
(NFr) O (NTo) Nc C (Vmn (Vmx Bctrl (Qini) T A (Extr
 2249            D 0950 1050  2249 20.    C        
(G  O E (U) UOp (Sht )
10        1   1 20.   
FBAN
(NFr) O (NTo) Nc C (Vmn (Vmx Bctrl (Qini) T A (Extr
 2251            D 0950 1050  2251 30.    C        
(G  O E (U) UOp (Sht )
10        1   1 30.   
FBAN
(NFr) O (NTo) Nc C (Vmn (Vmx Bctrl (Qini) T A (Extr
 2445            F 0950 1050  2445 4.8    C        
(G  O E (U) UOp (Sht )
10        2   2 2.4   
FBAN
(NFr) O (NTo) Nc C (Vmn (Vmx Bctrl (Qini) T A (Extr
 2465            F 0950 1050  2465 2.4    C        
(G  O E (U) UOp (Sht )
10        1   1 2.4   
FBAN
(NFr) O (NTo) Nc C (Vmn (Vmx Bctrl (Qini) T A (Extr
 2631            D 0950 1050  2631 26.7   C        
(G  O E (U) UOp (Sht )
10        1   1 26.7  
FBAN
(NFr) O (NTo) Nc C (Vmn (Vmx Bctrl (Qini) T A (Extr
 2653            D 1000 1050  2653        L        
(G  O E (U) UOp (Sht )
10        1   0 26.7  
FBAN
(NFr) O (NTo) Nc C (Vmn (Vmx Bctrl (Qini) T A (Extr
 2720            F 0950 1050  2720 4.8    C        
(G  O E (U) UOp (Sht )
10        1   1 4.8   
FBAN
(NFr) O (NTo) Nc C (Vmn (Vmx Bctrl (Qini) T A (Extr
 2722            F 0950 1050  2722 19.2   C        
(G  O E (U) UOp (Sht )
10        2   2 2.4   
20        3   3 4.8   
FBAN
(NFr) O (NTo) Nc C (Vmn (Vmx Bctrl (Qini) T A (Extr
 2755            F 0950 1050  2755 4.8    C        
(G  O E (U) UOp (Sht )
10        1   1 4.8   
FBAN
(NFr) O (NTo) Nc C (Vmn (Vmx Bctrl (Qini) T A (Extr
 2773            F 0950 1050  2773 9.6    C        
(G  O E (U) UOp (Sht )
10        2   2 4.8   
FBAN
(NFr) O (NTo) Nc C (Vmn (Vmx Bctrl (Qini) T A (Extr
 2799            F 0950 1050  2799 14.4   C        
(G  O E (U) UOp (Sht )
10        3   3 4.8   
FBAN
(NFr) O (NTo) Nc C (Vmn (Vmx Bctrl (Qini) T A (Extr
 2827            F 0950 1050  2827 7.2    C        
(G  O E (U) UOp (Sht )
10        1   1 2.4   
20        1   1 4.8   
FBAN
(NFr) O (NTo) Nc C (Vmn (Vmx Bctrl (Qini) T A (Extr
 2832            F 0950 1050  2832 14.4   C        
(G  O E (U) UOp (Sht )
10        3   3 4.8   
FBAN
(NFr) O (NTo) Nc C (Vmn (Vmx Bctrl (Qini) T A (Extr
 2870            F 0950 1050  2870 12.    C        
(G  O E (U) UOp (Sht )
10        3   3 2.4   
20        2   1 4.8   
FBAN
(NFr) O (NTo) Nc C (Vmn (Vmx Bctrl (Qini) T A (Extr
 2882            F 0800 1200  2882 4.8    C        
(G  O E (U) UOp (Sht )
10        1   1 4.8   
FBAN
(NFr) O (NTo) Nc C (Vmn (Vmx Bctrl (Qini) T A (Extr
 2889            F 0950 1050  2889 19.2   C        
(G  O E (U) UOp (Sht )
10        2   2 2.4   
20        3   3 4.8   
FBAN
(NFr) O (NTo) Nc C (Vmn (Vmx Bctrl (Qini) T A (Extr
 3010            F 0950 1100  3010 800.   C        
(G  O E (U) UOp (Sht )
10        3   2 220.  
20        3   2 180.  
30        6   0 275.  
FBAN
...